@<TRIPOS>MOLECULE
GWS
   34    35     1     0     0
SMALL
bcc


@<TRIPOS>ATOM
      1 N1           7.5340     0.3440    17.5810 nb      1001 GWS      -0.643000
      2 C4          13.4880    -0.5140    24.0620 c3      1001 GWS      -0.075900
      3 C5          13.9760    -1.6820    23.2210 c3      1001 GWS      -0.078400
      4 C6          13.4570    -1.5250    21.8030 c3      1001 GWS      -0.075900
      5 C7          11.9470    -1.3430    21.7400 c3      1001 GWS      -0.075900
      6 C8           7.4310     0.1160    19.8830 ca      1001 GWS      -0.046700
      7 C10          5.6480     1.1680    18.7500 ca      1001 GWS      -0.219300
      8 O            9.8710     0.9150    20.7010 o       1001 GWS      -0.585100
      9 C            9.3180     0.1790    21.4520 c       1001 GWS       0.667100
     10 N            8.0270    -0.3210    21.1040 ns      1001 GWS      -0.467100
     11 C12          8.0960    -0.0720    18.6860 ca      1001 GWS       0.374200
     12 C11          6.3540     0.9440    17.5790 ca      1001 GWS       0.363200
     13 C9           6.1970     0.7510    19.9620 ca      1001 GWS      -0.156000
     14 C1           9.9280    -0.2750    22.7730 c3      1001 GWS      -0.150400
     15 C2          11.4520    -0.2750    22.7120 c3      1001 GWS      -0.062700
     16 C3          11.9730    -0.5340    24.1180 c3      1001 GWS      -0.075900
     17 H           13.8170     0.4050    23.6230 hc      1001 GWS       0.043700
     18 H1          13.8840    -0.5960    25.0530 hc      1001 GWS       0.043700
     19 H2          15.0460    -1.6940    23.2120 hc      1001 GWS       0.040700
     20 H3          13.6170    -2.6000    23.6370 hc      1001 GWS       0.040700
     21 H4          13.9230    -0.6680    21.3620 hc      1001 GWS       0.043700
     22 H5          13.6940    -2.4240    21.2740 hc      1001 GWS       0.043700
     23 H6          11.4780    -2.2730    21.9830 hc      1001 GWS       0.040450
     24 H7          11.6960    -1.0260    20.7490 hc      1001 GWS       0.040450
     25 H8           4.7290     1.6370    18.7250 ha      1001 GWS       0.142000
     26 H9           7.5580    -0.9540    21.6940 hn      1001 GWS       0.316500
     27 H10          9.0190    -0.5320    18.6650 h4      1001 GWS       0.063100
     28 H11          5.9490     1.2530    16.6810 h4      1001 GWS       0.023100
     29 H12          5.7170     0.9040    20.8620 ha      1001 GWS       0.133000
     30 H13          9.5880    -1.2660    22.9910 hc      1001 GWS       0.070200
     31 H14          9.6220     0.4080    23.5370 hc      1001 GWS       0.070200
     32 H15         11.8120     0.6680    22.3570 hc      1001 GWS       0.071700
     33 H16         11.6340    -1.4890    24.4620 hc      1001 GWS       0.040450
     34 H17         11.6140     0.2140    24.7930 hc      1001 GWS       0.040450
@<TRIPOS>BOND
     1     1    11 ar  
     2     1    12 ar  
     3     2     3 1   
     4     2    16 1   
     5     2    17 1   
     6     2    18 1   
     7     3     4 1   
     8     3    19 1   
     9     3    20 1   
    10     4     5 1   
    11     4    21 1   
    12     4    22 1   
    13     5    15 1   
    14     5    23 1   
    15     5    24 1   
    16     6    10 1   
    17     6    11 ar  
    18     6    13 ar  
    19     7    12 ar  
    20     7    13 ar  
    21     7    25 1   
    22     8     9 2   
    23     9    10 1   
    24     9    14 1   
    25    10    26 1   
    26    11    27 1   
    27    12    28 1   
    28    13    29 1   
    29    14    15 1   
    30    14    30 1   
    31    14    31 1   
    32    15    16 1   
    33    15    32 1   
    34    16    33 1   
    35    16    34 1   
@<TRIPOS>SUBSTRUCTURE
     1 GWS         1 TEMP              0 ****  ****    0 ROOT
