@<TRIPOS>MOLECULE
SUS
   30    32     1     0     0
SMALL
bcc


@<TRIPOS>ATOM
      1 CL         -4.6850  -32.7250   25.2220 cl      999 SUS     -0.073100
      2 F1         -0.7550  -36.6320   25.6970 f       999 SUS     -0.231400
      3 F2          1.0780  -37.0430   24.6720 f       999 SUS     -0.221400
      4 F3         -0.7840  -37.1770   23.6260 f       999 SUS     -0.216800
      5 O1          1.5240  -34.9340   20.9100 o       999 SUS     -0.573600
      6 O2          0.9890  -34.8800   23.0580 os      999 SUS     -0.371900
      7 N          -0.6810  -34.9710   21.4340 n       999 SUS     -0.459500
      8 C1         -1.6620  -34.4140   22.3130 ca      999 SUS      0.084700
      9 C2         -2.9150  -33.9470   21.8430 ca      999 SUS     -0.167000
     10 C3         -3.8380  -33.4230   22.7710 ca      999 SUS     -0.069500
     11 C4         -3.5330  -33.3730   24.1190 ca      999 SUS     -0.025500
     12 C5         -2.3100  -33.8290   24.5930 ca      999 SUS     -0.040200
     13 C6         -1.3860  -34.3780   23.6810 ca      999 SUS     -0.163900
     14 C7         -0.0020  -34.9570   24.1440 c3      999 SUS      0.315500
     15 C8          0.5520  -34.2360   25.3150 c1      999 SUS     -0.193300
     16 C9          0.9850  -33.6570   26.2410 c1      999 SUS      0.012400
     17 C10         1.6050  -32.8020   27.5860 cx      999 SUS     -0.082700
     18 C11         2.8080  -33.0830   27.6390 cx      999 SUS     -0.108400
     19 C12         2.4040  -31.9800   27.1230 cx      999 SUS     -0.107700
     20 C13        -0.1210  -36.4720   24.5390 c3      999 SUS      0.609900
     21 C14         0.6650  -34.9320   21.7250 c       999 SUS      0.824700
     22 H122        2.4720  -31.7980   26.0400 hc      999 SUS      0.087500
     23 H121        2.5850  -31.0170   27.6230 hc      999 SUS      0.077800
     24 H112        3.3480  -33.1000   28.5970 hc      999 SUS      0.078200
     25 H111        3.2350  -33.8820   27.0150 hc      999 SUS      0.087300
     26 H101        0.7840  -32.7610   28.3170 hc      999 SUS      0.104300
     27 HN         -0.9810  -35.4020   20.5830 hn      999 SUS      0.344000
     28 H5         -2.0660  -33.7630   25.6640 ha      999 SUS      0.169400
     29 H3         -4.8110  -33.0500   22.4190 ha      999 SUS      0.156700
     30 H2         -3.1630  -33.9930   20.7720 ha      999 SUS      0.153700
@<TRIPOS>BOND
     1    1   11 1   
     2    2   20 1   
     3    3   20 1   
     4    4   20 1   
     5    5   21 2   
     6    6   14 1   
     7    6   21 1   
     8    7    8 1   
     9    7   21 1   
    10    7   27 1   
    11    8    9 ar  
    12    8   13 ar  
    13    9   10 ar  
    14    9   30 1   
    15   10   11 ar  
    16   10   29 1   
    17   11   12 ar  
    18   12   13 ar  
    19   12   28 1   
    20   13   14 1   
    21   14   15 1   
    22   14   20 1   
    23   15   16 3   
    24   16   17 1   
    25   17   18 1   
    26   17   19 1   
    27   17   26 1   
    28   18   19 1   
    29   18   24 1   
    30   18   25 1   
    31   19   22 1   
    32   19   23 1   
@<TRIPOS>SUBSTRUCTURE
     1 SUS         1 TEMP              0 ****  ****    0 ROOT
