@<TRIPOS>MOLECULE
3WZE
48 50 1 0 0
SMALL
AMBER ff14SB


@<TRIPOS>ATOM
      1 C1         26.3000   23.0600   33.4880 C.ar      1 BAX   -0.0910
      2 C2         26.5270   22.0590   34.4220 C.ar      1 BAX    0.0626
      3 C3         27.2160   20.9090   33.9970 C.ar      1 BAX   -0.1460
      4 C4         27.6570   20.7200   32.6830 C.ar      1 BAX   -0.1090
      5 C13        25.0010   22.8570   36.1800 C.2       1 BAX    0.6371
      6 C16        23.6440   23.1580   38.1460 C.ar      1 BAX    0.0616
      7 C17        23.7370   23.5620   39.4630 C.ar      1 BAX   -0.1475
      8 C18        22.6200   24.1060   40.0910 C.ar      1 BAX   -0.1095
      9 C19        21.4190   24.2600   39.4500 C.ar      1 BAX    0.0581
     10 C20        21.3100   23.8740   38.1470 C.ar      1 BAX   -0.1095
     11 C21        22.4270   23.3250   37.5340 C.ar      1 BAX   -0.1475
     12 O22        20.2980   24.6840   40.1440 O.3       1 BAX   -0.2382
     13 C24        20.8090   27.0980   39.9440 C.ar      1 BAX   -0.2923
     14 C25        20.2470   28.3760   40.0430 C.ar      1 BAX    0.1592
     15 C27        18.1720   27.5350   40.7810 C.ar      1 BAX    0.1148
     16 C28        18.6480   26.2120   40.6670 C.ar      1 BAX   -0.2103
     17 N30        16.3820   29.0800   41.3800 N.am      1 BAX   -0.5519
     18 C31        15.0470   29.4020   41.8520 C.3       1 BAX    0.0763
     19 C5         27.4200   21.7420   31.7450 C.ar      1 BAX    0.0374
     20 C6         26.7200   22.9520   32.1850 C.ar      1 BAX   -0.1383
     21 C7         26.4330   24.0790   31.2050 C.3       1 BAX    0.6922
     22 F8         25.6430   23.6890   30.2510 F         1 BAX   -0.2303
     23 F9         25.9040   25.1090   31.7580 F         1 BAX   -0.2303
     24 F10        27.5590   24.5000   30.7230 F         1 BAX   -0.2303
     25 CL11       27.9360   21.5870   30.0520 Cl        1 BAX   -0.0554
     26 N12        26.0470   22.1110   35.7280 N.pl3     1 BAX   -0.3981
     27 N14        24.7680   22.7310   37.5000 N.pl3     1 BAX   -0.3961
     28 O15        24.3710   23.5730   35.4360 O.2       1 BAX   -0.6001
     29 C23        19.9570   26.0200   40.2190 C.ar      1 BAX    0.1441
     30 N26        18.9760   28.5650   40.4480 N.ar      1 BAX   -0.1560
     31 C29        16.7850   27.8040   41.2370 C.2       1 BAX    0.5676
     32 O32        16.0640   26.8500   41.4790 O.2       1 BAX   -0.6111
     33 H1         25.7761   23.9528   33.7958 H         1 BAX    0.1940
     34 H3         27.4146   20.1329   34.7214 H         1 BAX    0.1410
     35 H4         28.1667   19.8123   32.3955 H         1 BAX    0.1570
     36 H17        24.6676   23.4570   40.0009 H         1 BAX    0.1565
     37 H18        22.7033   24.4182   41.1215 H         1 BAX    0.1555
     38 H20        20.3816   23.9921   37.6079 H         1 BAX    0.1555
     39 H21        22.3325   23.0077   36.5060 H         1 BAX    0.1565
     40 H24        21.8433   26.9507   39.6705 H         1 BAX    0.1620
     41 H25        20.8494   29.2352   39.7874 H         1 BAX    0.0291
     42 H28        18.0183   25.3715   40.9189 H         1 BAX    0.1880
     43 H30        17.0210   29.8289   41.1545 H         1 BAX    0.3295
     44 H12        26.5229   21.5372   36.4094 H         1 BAX    0.3125
     45 H14        25.4825   22.2846   38.0571 H         1 BAX    0.3125
     46 H311       14.9275   30.4846   41.8947 H         1 BAX    0.0454
     47 H312       14.3091   28.9819   41.1685 H         1 BAX    0.0454
     48 H313       14.9020   28.9809   42.8469 H         1 BAX    0.0454
@<TRIPOS>BOND
     1    1    2 ar
     2    1   20 ar
     3    2    3 ar
     4    2   26 1
     5    3    4 ar
     6    4   19 ar
     7    5   26 2
     8    5   27 2
     9    5   28 2
    10    6    7 ar
    11    6   11 ar
    12    6   27 1
    13    7    8 ar
    14    8    9 ar
    15    9   10 ar
    16    9   12 1
    17   10   11 ar
    18   12   29 1
    19   13   14 ar
    20   13   29 ar
    21   14   30 ar
    22   15   16 ar
    23   15   30 ar
    24   15   31 1
    25   16   29 ar
    26   17   18 1
    27   17   31 am
    28   19   20 ar
    29   19   25 1
    30   20   21 1
    31   21   22 1
    32   21   23 1
    33   21   24 1
    34   31   32 2
    35   33    1 1
    36   34    3 1
    37   35    4 1
    38   36    7 1
    39   37    8 1
    40   38   10 1
    41   39   11 1
    42   40   13 1
    43   41   14 1
    44   42   16 1
    45   43   17 1
    46   44   26 1
    47   45   27 1
    48   46   18 1
    49   47   18 1
    50   48   18 1
@<TRIPOS>SUBSTRUCTURE
     1 BAX     1 RESIDUE           4 A     BAX     0 ROOT
