@<TRIPOS>MOLECULE
LIG
   70    73     1     0     0
SMALL
bcc


@<TRIPOS>ATOM
      1 O2          17.0960    18.1590    34.7840 oh       500 LIG      -0.598800
      2 O1          13.1260    17.4540    36.5350 oh       500 LIG      -0.595800
      3 C1          14.1810    18.0370    35.6980 c6       500 LIG       0.179300
      4 C2          14.9150    16.9590    34.7840 c6       500 LIG      -0.066400
      5 C3          16.0750    17.6280    33.8850 c6       500 LIG       0.146100
      6 C4          15.4830    18.8070    32.9870 c6       500 LIG      -0.074200
      7 C5          14.6780    19.8850    33.7870 ce       500 LIG      -0.070200
      8 C6          14.8630    21.2550    33.6570 cf       500 LIG      -0.118000
      9 C7          14.2010    22.4150    34.3140 cf       500 LIG      -0.148000
     10 C8          13.9860    23.6240    33.8520 c2       500 LIG      -0.078400
     11 C9          14.4350    24.1110    32.3790 c6       500 LIG      -0.044200
     12 C10         13.6010    19.1950    34.7730 ce       500 LIG      -0.112200
     13 C11         13.1870    24.6460    31.4910 c6       500 LIG      -0.072400
     14 C12         12.2310    25.5920    32.3910 c6       500 LIG      -0.065400
     15 C13         11.8140    25.1290    33.9600 c5       500 LIG      -0.043000
     16 C14         13.2500    24.7290    34.6670 c5       500 LIG      -0.036500
     17 C15         12.6990    24.3720    36.2220 c5       500 LIG      -0.072400
     18 C16         11.4750    25.3840    36.3800 c5       500 LIG      -0.076400
     19 C17         11.4180    26.1800    35.0200 c5       500 LIG      -0.051700
     20 C18         10.7870    23.7830    33.6420 c3       500 LIG      -0.085100
     21 C19         12.2570    19.5560    34.8130 c2       500 LIG      -0.204000
     22 C20          9.9380    26.8860    34.7250 c3       500 LIG      -0.026500
     23 C22          8.6080    26.1550    35.0790 c2       500 LIG      -0.138200
     24 C24          6.1080    25.6110    34.6940 c3       500 LIG       0.205300
     25 C21          9.8650    28.2480    35.4480 c3       500 LIG      -0.089100
     26 C25          5.5480    24.5800    33.5850 cx       500 LIG      -0.132700
     27 C26          5.0380    25.5240    32.4720 cx       500 LIG      -0.119400
     28 C27          4.2940    24.3490    33.2310 cx       500 LIG      -0.119400
     29 O3           5.2530    26.7520    34.9730 oh       500 LIG      -0.599800
     30 C23          7.5040    26.0930    34.2820 c2       500 LIG      -0.222200
     31 H1          14.9270    18.4790    36.3590 h1       500 LIG       0.060700
     32 H22         15.3600    16.1970    35.4250 hc       500 LIG       0.067700
     33 H23         14.1820    16.4890    34.1280 hc       500 LIG       0.067700
     34 H3          16.5180    16.8690    33.2410 h1       500 LIG       0.034700
     35 H42         14.8190    18.3680    32.2430 hc       500 LIG       0.054200
     36 H43         16.3070    19.3000    32.4710 hc       500 LIG       0.054200
     37 H6          15.6290    21.5300    32.9480 ha       500 LIG       0.121000
     38 H7          13.8460    22.2350    35.3180 ha       500 LIG       0.131000
     39 H92         14.8980    23.2720    31.8600 hc       500 LIG       0.046700
     40 H93         15.1670    24.9120    32.4790 hc       500 LIG       0.046700
     41 H112        13.5660    25.2180    30.6440 hc       500 LIG       0.041700
     42 H113        12.6130    23.7950    31.1250 hc       500 LIG       0.041700
     43 H122        12.7310    26.5570    32.4710 hc       500 LIG       0.041200
     44 H123        11.3050    25.7460    31.8370 hc       500 LIG       0.041200
     45 H14         13.8820    25.6160    34.7110 hc       500 LIG       0.055700
     46 H152        12.3690    23.3360    36.2970 hc       500 LIG       0.045200
     47 H153        13.4710    24.5840    36.9620 hc       500 LIG       0.045200
     48 H162        10.5460    24.8370    36.5420 hc       500 LIG       0.042200
     49 H163        11.6580    26.0680    37.2090 hc       500 LIG       0.042200
     50 H17         12.1790    26.9600    35.0400 hc       500 LIG       0.045700
     51 H20          9.9020    27.0980    33.6560 hc       500 LIG       0.052700
     52 H221         8.5570    25.6560    36.0350 ha       500 LIG       0.124000
     53 H24          6.2200    25.0550    35.6250 h1       500 LIG       0.037700
     54 H25          6.2640    23.8270    33.2560 hc       500 LIG       0.083700
     55 H262         4.8060    26.5700    32.6730 hc       500 LIG       0.073700
     56 H263         5.3790    25.2980    31.4620 hc       500 LIG       0.073700
     57 H272         4.0500    23.4340    32.6920 hc       500 LIG       0.073700
     58 H273         3.5450    24.6700    33.9550 hc       500 LIG       0.073700
     59 H231         7.6250    26.4160    33.2580 ha       500 LIG       0.135000
     60 H191        11.5820    19.0520    35.4890 ha       500 LIG       0.121000
     61 H192        11.8890    20.3400    34.1680 ha       500 LIG       0.121000
     62 H211        10.7710    28.8180    35.2430 hc       500 LIG       0.036700
     63 H212         9.7740    28.0850    36.5220 hc       500 LIG       0.036700
     64 H213         8.9980    28.8030    35.0900 hc       500 LIG       0.036700
     65 HO2         17.7980    18.5630    34.2690 ho       500 LIG       0.400000
     66 HO1         12.7500    18.1360    37.0970 ho       500 LIG       0.400000
     67 HO3          5.4280    27.0740    35.8600 ho       500 LIG       0.402000
     68 H181        10.4300    23.3670    34.5840 hc       500 LIG       0.039700
     69 H182        11.3450    23.0210    33.0970 hc       500 LIG       0.039700
     70 H183         9.9360    24.1080    33.0430 hc       500 LIG       0.039700
@<TRIPOS>BOND
     1     1     5 1   
     2     1    65 1   
     3     2     3 1   
     4     2    66 1   
     5     3     4 1   
     6     3    12 1   
     7     3    31 1   
     8     4     5 1   
     9     4    32 1   
    10     4    33 1   
    11     5     6 1   
    12     5    34 1   
    13     6     7 1   
    14     6    35 1   
    15     6    36 1   
    16     7     8 2   
    17     7    12 1   
    18     8     9 1   
    19     8    37 1   
    20     9    10 2   
    21     9    38 1   
    22    10    11 1   
    23    10    16 1   
    24    11    13 1   
    25    11    39 1   
    26    11    40 1   
    27    12    21 2   
    28    13    14 1   
    29    13    41 1   
    30    13    42 1   
    31    14    15 1   
    32    14    43 1   
    33    14    44 1   
    34    15    16 1   
    35    15    19 1   
    36    15    20 1   
    37    16    17 1   
    38    16    45 1   
    39    17    18 1   
    40    17    46 1   
    41    17    47 1   
    42    18    19 1   
    43    18    48 1   
    44    18    49 1   
    45    19    22 1   
    46    19    50 1   
    47    20    68 1   
    48    20    69 1   
    49    20    70 1   
    50    21    60 1   
    51    21    61 1   
    52    22    23 1   
    53    22    25 1   
    54    22    51 1   
    55    23    30 2   
    56    23    52 1   
    57    24    26 1   
    58    24    29 1   
    59    24    30 1   
    60    24    53 1   
    61    25    62 1   
    62    25    63 1   
    63    25    64 1   
    64    26    27 1   
    65    26    28 1   
    66    26    54 1   
    67    27    28 1   
    68    27    55 1   
    69    27    56 1   
    70    28    57 1   
    71    28    58 1   
    72    29    67 1   
    73    30    59 1   
@<TRIPOS>SUBSTRUCTURE
     1 LIG         1 TEMP              0 ****  ****    0 ROOT
