@<TRIPOS>MOLECULE
1S19.pdb
70 73 1 0 0
SMALL
AMBER ff14SB


@<TRIPOS>ATOM
      1 O2         17.0960   18.1590   34.7840 O.3       1 MC9   -0.5988
      2 O1         13.1260   17.4540   36.5350 O.3       1 MC9   -0.5958
      3 C1         14.1810   18.0370   35.6980 C.3       1 MC9    0.1793
      4 C2         14.9150   16.9590   34.7840 C.3       1 MC9   -0.0664
      5 C3         16.0750   17.6280   33.8850 C.3       1 MC9    0.1461
      6 C4         15.4830   18.8070   32.9870 C.3       1 MC9   -0.0742
      7 C5         14.6780   19.8850   33.7870 C.2       1 MC9   -0.0702
      8 C6         14.8630   21.2550   33.6570 C.2       1 MC9   -0.1180
      9 C7         14.2010   22.4150   34.3140 C.2       1 MC9   -0.1480
     10 C8         13.9860   23.6240   33.8520 C.2       1 MC9   -0.0784
     11 C9         14.4350   24.1110   32.3790 C.3       1 MC9   -0.0442
     12 C10        13.6010   19.1950   34.7730 C.2       1 MC9   -0.1122
     13 C11        13.1870   24.6460   31.4910 C.3       1 MC9   -0.0724
     14 C12        12.2310   25.5920   32.3910 C.3       1 MC9   -0.0654
     15 C13        11.8140   25.1290   33.9600 C.3       1 MC9   -0.0430
     16 C14        13.2500   24.7290   34.6670 C.3       1 MC9   -0.0365
     17 C15        12.6990   24.3720   36.2220 C.3       1 MC9   -0.0724
     18 C16        11.4750   25.3840   36.3800 C.3       1 MC9   -0.0764
     19 C17        11.4180   26.1800   35.0200 C.3       1 MC9   -0.0537
     20 C18        10.7870   23.7830   33.6420 C.3       1 MC9   -0.0831
     21 C19        12.2570   19.5560   34.8130 C.2       1 MC9   -0.2040
     22 C20         9.9380   26.8860   34.7250 C.3       1 MC9   -0.0275
     23 C22         8.6080   26.1550   35.0790 C.2       1 MC9   -0.1372
     24 C24         6.1080   25.6110   34.6940 C.3       1 MC9    0.2063
     25 C21         9.8650   28.2480   35.4480 C.3       1 MC9   -0.0881
     26 C25         5.5480   24.5800   33.5850 C.3       1 MC9   -0.1317
     27 C26         5.0380   25.5240   32.4720 C.3       1 MC9   -0.1194
     28 C27         4.2940   24.3490   33.2310 C.3       1 MC9   -0.1194
     29 O3          5.2530   26.7520   34.9730 O.3       1 MC9   -0.5998
     30 C23         7.5040   26.0930   34.2820 C.2       1 MC9   -0.2262
     31 H1         14.9268   18.4786   36.3590 H         1 MC9    0.0607
     32 H22        15.3599   16.1975   35.4245 H         1 MC9    0.0677
     33 H23        14.1820   16.4893   34.1282 H         1 MC9    0.0677
     34 H3         16.5182   16.8686   33.2407 H         1 MC9    0.0357
     35 H42        14.8187   18.3681   32.2425 H         1 MC9    0.0542
     36 H43        16.3073   19.2995   32.4712 H         1 MC9    0.0542
     37 H6         15.6295   21.5299   32.9475 H         1 MC9    0.1210
     38 H7         13.8457   22.2352   35.3179 H         1 MC9    0.1310
     39 H92        14.8980   23.2717   31.8601 H         1 MC9    0.0467
     40 H93        15.1671   24.9123   32.4792 H         1 MC9    0.0467
     41 H112       13.5660   25.2179   30.6440 H         1 MC9    0.0412
     42 H113       12.6126   23.7951   31.1248 H         1 MC9    0.0412
     43 H122       12.7306   26.5574   32.4711 H         1 MC9    0.0417
     44 H123       11.3052   25.7460   31.8367 H         1 MC9    0.0417
     45 H14        13.8818   25.6161   34.7107 H         1 MC9    0.0557
     46 H152       12.3685   23.3360   36.2969 H         1 MC9    0.0457
     47 H153       13.4711   24.5838   36.9617 H         1 MC9    0.0457
     48 H162       10.5459   24.8375   36.5420 H         1 MC9    0.0422
     49 H163       11.6578   26.0683   37.2085 H         1 MC9    0.0422
     50 H17        12.1792   26.9599   35.0398 H         1 MC9    0.0467
     51 H20         9.9017   27.0983   33.6565 H         1 MC9    0.0557
     52 H221        8.5568   25.6560   36.0354 H         1 MC9    0.1260
     53 H24         6.2195   25.0552   35.6250 H         1 MC9    0.0367
     54 H25         6.2639   23.8270   33.2556 H         1 MC9    0.0817
     55 H262        4.8060   26.5698   32.6734 H         1 MC9    0.0737
     56 H263        5.3794   25.2977   31.4619 H         1 MC9    0.0737
     57 H272        4.0503   23.4336   32.6917 H         1 MC9    0.0737
     58 H273        3.5448   24.6702   33.9547 H         1 MC9    0.0737
     59 H231        7.6246   26.4155   33.2584 H         1 MC9    0.1350
     60 H191       11.5823   19.0518   35.4890 H         1 MC9    0.1210
     61 H192       11.8891   20.3402   34.1680 H         1 MC9    0.1210
     62 H211       10.7712   28.8179   35.2428 H         1 MC9    0.0370
     63 H212        9.7742   28.0846   36.5219 H         1 MC9    0.0370
     64 H213        8.9979   28.8032   35.0903 H         1 MC9    0.0370
     65 HO2        17.7981   18.5629   34.2687 H         1 MC9    0.4010
     66 HO1        12.7504   18.1356   37.0971 H         1 MC9    0.4000
     67 HO3         5.4283   27.0745   35.8601 H         1 MC9    0.4030
     68 H181       10.4301   23.3670   34.5842 H         1 MC9    0.0387
     69 H182       11.3448   23.0215   33.0970 H         1 MC9    0.0387
     70 H183        9.9364   24.1085   33.0432 H         1 MC9    0.0387
@<TRIPOS>BOND
     1    1    5 1
     2    2    3 1
     3    3    4 1
     4    3   12 1
     5    4    5 1
     6    5    6 1
     7    6    7 1
     8    7    8 2
     9    7   12 2
    10    8    9 2
    11    9   10 2
    12   10   11 1
    13   10   16 1
    14   11   13 1
    15   12   21 2
    16   13   14 1
    17   14   15 1
    18   15   16 1
    19   15   19 1
    20   15   20 1
    21   16   17 1
    22   17   18 1
    23   18   19 1
    24   19   22 1
    25   22   23 1
    26   22   25 1
    27   23   30 2
    28   24   26 1
    29   24   29 1
    30   24   30 1
    31   26   27 1
    32   26   28 1
    33   27   28 1
    34   31    3 1
    35   32    4 1
    36   33    4 1
    37   34    5 1
    38   35    6 1
    39   36    6 1
    40   37    8 1
    41   38    9 1
    42   39   11 1
    43   40   11 1
    44   41   13 1
    45   42   13 1
    46   43   14 1
    47   44   14 1
    48   45   16 1
    49   46   17 1
    50   47   17 1
    51   48   18 1
    52   49   18 1
    53   50   19 1
    54   51   22 1
    55   52   23 1
    56   53   24 1
    57   54   26 1
    58   55   27 1
    59   56   27 1
    60   57   28 1
    61   58   28 1
    62   59   30 1
    63   60   21 1
    64   61   21 1
    65   62   25 1
    66   63   25 1
    67   64   25 1
    68   65    1 1
    69   66    2 1
    70   67   29 1
    71   68   20 1
    72   69   20 1
    73   70   20 1
@<TRIPOS>SUBSTRUCTURE
     1 MC9     1 RESIDUE           4 A     MC9     0 ROOT
